LAMMPS (29 Aug 2024)
# Sequence matters* as the script is read top-2-bottom

# 1. Energy minimization

#### Initialization ####
units lj
dimension 3
atom_style atomic
pair_style lj/cut 2.5
boundary p p p

#### System Definition ####
region simulation_box block -20 20 -20 20 -20 20
create_box 2 simulation_box
Created orthogonal box = (-20 -20 -20) to (20 20 20)
create_atoms 1 random 1500 341341 simulation_box
Created 1500 atoms
create_atoms 2 random 100 127569 simulation_box
Created 100 atoms

#### Simualtion Settings ####
mass 1 1
mass 2 1
# mass * 1
pair_coeff 1 1 1.0 1.0
pair_coeff 2 2 0.5 3.0
# pair_coeff 1 2 0.707 1.732    # geometric average, arithmetic rule could also be used

#### Visualisation ####
thermo 10
thermo_style custom step temp pe ke etotal press

#### Running Simulation ####
minimize 1.0e-4 1.0e-6 10000 100000
Generated 1 of 1 mixed pair_coeff terms from geometric mixing rule
Step          Temp          PotEng         KinEng         TotEng         Press
0   0              78840982       0              78840982       7884122
Loop time of 0.0863927 on 16 procs for 381 steps with 1600 atoms

Minimization stats:
  Stopping criterion = linesearch alpha is zero
  Energy initial, next-to-last, final =
  Force two-norm initial, final = 1.6033542e+13 15.292371
  Force max component initial, final = 1.0518609e+13 5.4676463
  Final line search alpha, max atom move = 7.8125413e-08 4.2716213e-07
  Iterations, force evaluations = 381 791

# 2. Molecular Dynamics
#### Visualization ####
thermo 50

#### Running Simulation ####
fix myenv all nve
fix mylgv all langevin 1.0 1.0 0.1 1530917
timestep 0.005
run 10000
Generated 1 of 1 mixed pair_coeff terms from geometric mixing rule
Step          Temp          PotEng         KinEng         TotEng         Press
381   0             -0.95310667     0             -0.95310667    -0.00024244201
Averages over the last 101 of 202 rows, steps 5400 to 10381:
Temp PotEng KinEng TotEng Press
0.999466 -0.236238 1.49826 1.26202 0.0229312
Loop time of 1.50299 on 16 procs for 10000 steps with 1600 atoms
