LAMMPS (29 Aug 2024)
variable T equal 300

units real
atom_style molecular
boundary f f f
pair_style lj/cut 14

bond_style harmonic
angle_style harmonic
dihedral_style opls
improper_style harmonic

special_bonds lj 0.0 0.0 0.5

read_data cnt_molecular.data
Reading data file ...
  orthogonal box = (-40 -40 -12.130411) to (40 40 67.869589)
  reading atoms ...
  700 atoms
  scanning bonds ...
  scanning angles ...
  scanning dihedrals ...
  scanning impropers ...
  orthogonal box = (-40 -40 -12.130411) to (40 40 67.869589)
  reading bonds ...
  1035 bonds
  reading angles ...
  2040 angles
  reading dihedrals ...
  4030 dihedrals
  reading impropers ...
  670 impropers
Finding 1-2 1-3 1-4 neighbors ...
     3 = max # of 1-2 neighbors
     6 = max # of 1-3 neighbors
    18 = max # of 1-4 neighbors
    18 = max # of special neighbors

include parm.lammps
pair_coeff 1 1 0.666 3.4
bond_coeff 1 469 1.4
angle_coeff 1 63 120
dihedral_coeff 1 0 7.25 0 0
improper_coeff 1 5 180

# recentering CNT
group carbon_atoms type 1
700 atoms in group carbon_atoms
variable carbon_xcm equal -1*xcm(carbon_atoms,x)
variable carbon_ycm equal -1*xcm(carbon_atoms,y)
variable carbon_zcm equal -1*xcm(carbon_atoms,z)
displace_atoms carbon_atoms move 8.63582707317374e-18 5.44011733255672e-16 -27.8695884500003
Displacing atoms ...

# changing box boundaries - making the inital state symmetrical
change_box all x final -40 40 y final -40 40 z final -40 40
Changing box ...
  orthogonal box = (-40 -40 -12.130411) to (40 40 67.869589)
  orthogonal box = (-40 -40 -12.130411) to (40 40 67.869589)
  orthogonal box = (-40 -40 -40) to (40 40 40)

# isolating atoms from two edges as displacement will be imposed on the edges of the CNT
variable zmax equal bound(carbon_atoms,zmax)-0.5
variable zmin equal bound(carbon_atoms,zmin)+0.5
region rtop block INF INF INF INF 27.3695895499997 INF
region rbot block INF INF INF INF INF -27.3695884500003
region rmid block INF INF INF INF -27.3695884500003 27.3695895499997

# defining 3 groups of atoms corresponding to the 3 regions respectively
group carbon_top region rtop
10 atoms in group carbon_top
group carbon_bot region rbot
10 atoms in group carbon_bot
group carbon_mid region rmid
680 atoms in group carbon_mid

# introducing a less ideal state with some defects where we randomly delete a samll fraction
# of carbon atoms. To avoid deleting atoms closed to edge we create a new refion that
# starts a certaing distance from the edge
variable zmax_del equal 27.3695895499997-2
variable zmin_del equal -27.3695884500003+2
region rdel block INF INF INF INF -25.3695884500003 25.3695895499997
group rdel region rdel
630 atoms in group rdel
delete_atoms random fraction 0.02 no rdel NULL 482793 bond yes # what happened here!
Deleted 10 atoms, new total = 690
Deleted 30 bonds, new total = 1005
Deleted 90 angles, new total = 1950
Deleted 239 dihedrals, new total = 3791
Deleted 40 impropers, new total = 630

#### Molecular Dynamics ####

# specifying thermalization and dynamics of the system
reset_atoms id sort yes
Generated 0 of 0 mixed pair_coeff terms from geometric mixing rule
Finding 1-2 1-3 1-4 neighbors ...
     3 = max # of 1-2 neighbors
     6 = max # of 1-3 neighbors
    18 = max # of 1-4 neighbors
    18 = max # of special neighbors
velocity carbon_mid create 300 48455 mom yes rot yes
fix myenv all nve
compute Tmid carbon_mid temp
fix myber carbon_mid temp/berendsen 300 300 100
fix_modify myber temp Tmid

# restrain motion of the atoms at the edges (semi-frozen atoms)
fix mysf1 carbon_top setforce 0 0 0
fix mysf2 carbon_bot setforce 0 0 0
velocity carbon_top set 0 0 0
velocity carbon_bot set 0 0 0

#### Data extraction ####
variable L equal xcm(carbon_top,z)-xcm(carbon_bot,z)
fix at1 all ave/time 10 10 100 v_L file output_cnt_length.dat
fix at2 all ave/time 10 10 100 f_mysf1[1] f_mysf2[1] file output_edge_force.dat

# print co-ordinates of atom every 1000 steps
dump mydump all atom 1000 dump.lammpstrj

# check temperature of non-frozen group over time
fix at3 all ave/time 10 10 100 c_Tmid file output_temperature_non_frozen_group.dat

# run a small equilibration step to bring the system to the required temperature
# before applying any deformation
thermo 100
thermo_modify temp Tmid

timestep 1.0
run 5000

CITE-CITE-CITE-CITE-CITE-CITE-CITE-CITE-CITE-CITE-CITE-CITE-CITE

Your simulation uses code contributions which should be cited:

- Type Label Framework: https://doi.org/10.1021/acs.jpcb.3c08419

@Article{Gissinger24,
 author = {Jacob R. Gissinger, Ilia Nikiforov, Yaser Afshar, Brendon Waters, Moon-ki Choi, Daniel S. Karls, Alexander Stukowski, Wonpil Im, Hendrik Heinz, Axel Kohlmeyer, and Ellad B. Tadmor},
 title = {Type Label Framework for Bonded Force Fields in LAMMPS},
 journal = {J. Phys. Chem. B},
 year =    2024,
 volume =  128,
 number =  13,
 pages =   {3282â€“-3297}
}

CITE-CITE-CITE-CITE-CITE-CITE-CITE-CITE-CITE-CITE-CITE-CITE-CITE

Generated 0 of 0 mixed pair_coeff terms from geometric mixing rule
Step          Temp          E_pair         E_mol          TotEng         Press
0   300            7983.6777      30335.213      38917.14       5833.0878
Averages over the last 26 of 51 rows, steps 2500 to 5000:
Temp E_pair E_mol TotEng Press
303.164 2766.33 32046.7 35417.6 734.514
Loop time of 7.69691 on 4 procs for 5000 steps with 690 atoms

# impose a velocity deformation on CNT by combining ***velocity set*** command with previous
# ***fix setforce***
velocity carbon_top set 0 0 0.0005
velocity carbon_bot set 0 0 -0.0005
run 10000
Generated 0 of 0 mixed pair_coeff terms from geometric mixing rule
Step          Temp          E_pair         E_mol          TotEng         Press
5000   305.27186      2728.7257      32075.055      35412.542      661.28352
Averages over the last 51 of 101 rows, steps 10000 to 15000:
Temp E_pair E_mol TotEng Press
300.917 1149.51 39402.3 41151.9 -5041.35
Loop time of 14.9068 on 4 procs for 10000 steps with 690 atoms
